-- *------------------------------------------*
-- *                                          *
-- * base grid model with input parameters    *
-- *                                          *
-- *------------------------------------------*
RUNSPEC

WARN

TITLE
 PUNQ-S3 MODEL

DIMENS
19 28 5/

--Phases
OIL
WATER
GAS
DISGAS

TABDIMS
1/

AQUDIMS
300 300 300 2 120 120/


--UNIT
METRIC

START
 01    'JAN'  1967/


--Memory allocation
NSTACK
100/


-- Unified output files
UNIFOUT


-- Allow 5000 warnings, messages, but terminate on 1st error message
MESSAGES
  11*5000  1  /



NOECHO

GRID
INIT

-- put in your PORO, PERMX and PERMZ
PORO
0.265480
0.211005
0.204251
0.291204
0.163023
0.157237
0.083823
0.116185
0.017052
0.070381
0.124182
0.192789
0.277537
0.275535
0.245743
0.209113
0.197629
0.011654
0.010326
0.294386
0.260182
0.155488
0.275685
0.257884
0.178500
0.159943
0.107099
0.043849
0.011226
0.056972
0.248779
0.251793
0.297708
0.268980
0.196760
0.136161
0.120618
0.029067
0.296548
0.270930
0.217913
0.248845
0.267067
0.244027
0.068104
0.146204
0.104338
0.085187
0.015772
0.142013
0.278589
0.292650
0.263832
0.262329
0.168479
0.100576
0.046039
0.291542
0.294246
0.280916
0.199004
0.164365
0.224139
0.084604
0.125062
0.123027
0.112797
0.022471
0.141540
0.188543
0.285491
0.290016
0.228671
0.230794
0.060899
0.063770
0.293918
0.295812
0.289309
0.241585
0.216714
0.212809
0.188279
0.144323
0.132267
0.127482
0.126217
0.101368
0.148283
0.182185
0.294168
0.294342
0.224337
0.087585
0.018924
0.210741
0.297381
0.268685
0.280611
0.182669
0.255532
0.199730
0.176487
0.154410
0.194945
0.148360
0.105713
0.115899
0.153299
0.275508
0.295558
0.288848
0.255198
0.109739
0.124303
0.280620
0.296471
0.243301
0.291466
0.181888
0.198355
0.219343
0.254000
0.259997
0.091501
0.074407
0.091292
0.115085
0.197090
0.285350
0.285240
0.230805
0.141463
0.062945
0.169348
0.288254
0.251088
0.287235
0.284685
0.280594
0.190325
0.230497
0.188334
0.208486
0.088102
0.052044
0.085110
0.146545
0.280564
0.292913
0.246304
0.105262
0.072768
0.129792
0.251099
0.287641
0.256824
0.293840
0.249263
0.269622
0.237823
0.173924
0.201754
0.094482
0.025544
0.044017
0.097166
0.196012
0.296178
0.286265
0.143564
0.018287
0.145731
0.241288
0.282866
0.203965
0.274373
0.288066
0.200170
0.200907
0.188631
0.250742
0.187498
0.070436
0.024595
0.060085
0.191821
0.272003
0.284799
0.271468
0.018613
0.085451
0.197816
0.167434
0.241618
0.140869
0.289549
0.285120
0.195077
0.161637
0.166059
0.211093
0.193724
0.078675
0.065024
0.149108
0.234600
0.284536
0.281207
0.017191
0.018535
0.088465
0.098442
0.123324
0.171229
0.289679
0.274569
0.257838
0.128582
0.150186
0.144422
0.203701
0.147931
0.075100
0.066916
0.179160
0.195099
0.268603
0.011499
0.016508
0.087475
0.190138
0.183439
0.136095
0.185936
0.282821
0.265842
0.159305
0.080160
0.178610
0.199092
0.165476
0.138460
0.137063
0.189819
0.243059
0.269076
0.010240
0.011769
0.036117
0.143190
0.141287
0.163441
0.149031
0.280666
0.287518
0.268830
0.140099
0.054783
0.151011
0.129517
0.117604
0.116911
0.180337
0.207969
0.186904
0.010642
0.010813
0.011991
0.050383
0.171790
0.183802
0.137448
0.243741
0.270172
0.288466
0.231960
0.175442
0.079269
0.167269
0.065090
0.088762
0.144499
0.184429
0.224359
0.033242
0.011273
0.021559
0.034155
0.067653
0.116504
0.174056
0.212578
0.281632
0.293125
0.273013
0.182328
0.150692
0.156302
0.148030
0.062703
0.129913
0.136766
0.239517
0.184638
0.010791
0.018819
0.018414
0.116438
0.108628
0.056180
0.179479
0.219200
0.222511
0.288705
0.267234
0.265487
0.177158
0.152782
0.062274
0.090555
0.173033
0.220828
0.155873
0.018493
0.010655
0.022358
0.022240
0.087750
0.011910
0.083493
0.207749
0.257127
0.262643
0.293177
0.264212
0.275357
0.168215
0.099014
0.103502
0.128505
0.236668
0.034002
0.056334
0.016190
0.017861
0.012795
0.022026
0.109486
0.029427
0.107000
0.074902
0.272582
0.292780
0.291400
0.294545
0.227538
0.178445
0.139659
0.140627
0.174980
0.043350
0.040123
0.065959
0.024911
0.083669
0.021452
0.078180
0.066498
0.064463
0.077707
0.145181
0.232928
0.297941
0.292302
0.285028
0.270152
0.157655
0.142695
0.146611
0.011939
0.021710
0.051131
0.068742
0.045216
0.088014
0.028428
0.103513
0.018333
0.131838
0.048129
0.195770
0.287469
0.296058
0.299031
0.288735
0.280551
0.239066
0.199312
0.014197
0.014716
0.061603
0.085814
0.123478
0.148789
0.066234
0.077146
0.064023
0.082800
0.037883
0.076475
0.283811
0.292014
0.297687
0.298509
0.278328
0.272425
0.218617
0.028052
0.032463
0.018828
0.144389
0.032606
0.182130
0.139681
0.068929
0.030839
0.073516
0.079258
0.103953
0.230596
0.294713
0.298412
0.297674
0.293281
0.242047
0.235029
0.104635
0.032988
0.015698
0.122741
0.092513
0.156093
0.194241
0.035041
0.037112
0.016161
0.082800
0.063253
0.096385
0.294354
0.295347
0.296755
0.283312
0.202843
0.205329
0.055355
0.032193
0.016331
0.014662
0.080908
0.164827
0.124193
0.105031
0.051032
0.026843
0.021924
0.070821
0.149944
0.234270
0.279582
0.298451
0.265351
0.275893
0.182999
0.146644
0.014218
0.028745
0.031704
0.100114
0.029816
0.148811
0.112973
0.063088
0.038962
0.017621
0.027524
0.072427
0.239913
0.286798
0.291876
0.294659
0.284752
0.230321
0.059315
0.137107
0.077905
0.036632
0.024129
0.028900
0.066839
0.186530
0.190061
0.021684
0.044831
0.017600
0.064331
0.205637
0.225822
0.250775
0.279128
0.289613
0.268679
0.192756
0.154751
0.188092
0.096440
0.019585
0.014878
0.019177
0.111884
0.145808
0.184198
0.013898
0.019221
0.036720
0.141716
0.207397
0.236789
0.276130
0.231377
0.246788
0.077764
0.102304
0.151212
0.093236
0.115184
0.069112
0.070480
0.041988
0.054668
0.044492
0.045968
0.075192
0.066724
0.068080
0.109096
0.123822
0.059620
0.034172
0.053460
0.031220
0.096228
0.118316
0.052284
0.022878
0.053976
0.056344
0.021000
0.066960
0.053528
0.051352
0.037276
0.058972
0.081048
0.059648
0.076852
0.066524
0.093544
0.124314
0.086076
0.116496
0.109184
0.028983
0.021009
0.018399
0.024637
0.057024
0.049488
0.059104
0.108604
0.077608
0.068384
0.056984
0.090096
0.070416
0.039516
0.037404
0.072612
0.105044
0.092552
0.084820
0.077832
0.055780
0.023236
0.015658
0.085564
0.094928
0.106388
0.150095
0.143633
0.138345
0.094400
0.088692
0.071608
0.032988
0.026890
0.038860
0.130136
0.132989
0.106184
0.084476
0.074528
0.081912
0.056816
0.092384
0.095236
0.141499
0.152738
0.137602
0.125863
0.126913
0.137783
0.075444
0.034688
0.042652
0.037760
0.128659
0.136315
0.131330
0.067216
0.070592
0.085932
0.102736
0.112304
0.113604
0.129652
0.154923
0.157126
0.155091
0.126563
0.128410
0.081628
0.084736
0.016313
0.036140
0.119216
0.138024
0.133231
0.084504
0.086132
0.130264
0.114204
0.126466
0.117936
0.136169
0.145349
0.162944
0.159822
0.150831
0.124982
0.072480
0.055464
0.032104
0.058020
0.134232
0.120644
0.121330
0.113512
0.123548
0.101856
0.153340
0.138787
0.140269
0.138126
0.137192
0.104064
0.132888
0.130130
0.117288
0.089668
0.041064
0.026549
0.016197
0.111660
0.091676
0.134309
0.073100
0.095156
0.103140
0.131451
0.153197
0.106184
0.113788
0.052380
0.083860
0.100076
0.158344
0.107704
0.070580
0.048412
0.043164
0.018468
0.079904
0.086636
0.070228
0.054776
0.095104
0.088788
0.092348
0.098436
0.065144
0.099320
0.045500
0.014907
0.061820
0.085116
0.037756
0.103048
0.066736
0.034620
0.039732
0.088592
0.084840
0.090584
0.104160
0.075380
0.042652
0.077840
0.068848
0.052340
0.093120
0.054696
0.087948
0.077860
0.082360
0.075456
0.095652
0.070800
0.034092
0.044916
0.075248
0.037712
0.056440
0.071564
0.075972
0.011765
0.011818
0.013361
0.021104
0.056076
0.051016
0.070416
0.093760
0.132897
0.109200
0.143954
0.092216
0.040532
0.023183
0.044880
0.034804
0.021655
0.034208
0.032724
0.025932
0.013702
0.017172
0.045948
0.035196
0.016604
0.034000
0.107472
0.110356
0.090948
0.089624
0.070760
0.040584
0.050820
0.091584
0.070092
0.084816
0.081936
0.037724
0.037452
0.024396
0.017676
0.045164
0.028888
0.030740
0.024625
0.028581
0.077692
0.080632
0.079552
0.042776
0.058332
0.090352
0.088368
0.055564
0.051684
0.072888
0.061076
0.017770
0.031500
0.022801
0.039280
0.057884
0.012673
0.013799
0.021205
0.039632
0.068076
0.085656
0.060016
0.073072
0.111364
0.115804
0.081284
0.048036
0.077068
0.081984
0.016242
0.017292
0.025598
0.027349
0.051472
0.016384
0.020622
0.017753
0.015987
0.030180
0.053364
0.065132
0.073512
0.079068
0.074452
0.093220
0.031432
0.022801
0.071836
0.062476
0.039352
0.035824
0.058800
0.061320
0.045332
0.018514
0.062288
0.065468
0.021247
0.027579
0.045472
0.065724
0.043480
0.042048
0.050188
0.039988
0.013724
0.053376
0.075228
0.086164
0.096424
0.024834
0.058872
0.085020
0.030152
0.028915
0.065068
0.033912
0.028282
0.031664
0.038856
0.044344
0.014980
0.043828
0.028162
0.019318
0.043892
0.066672
0.084420
0.095588
0.023297
0.025179
0.018004
0.037360
0.022565
0.045932
0.089876
0.085484
0.049468
0.070800
0.094760
0.018773
0.022613
0.019714
0.016789
0.071256
0.069708
0.055500
0.055548
0.048432
0.045860
0.023390
0.050304
0.039344
0.087260
0.119188
0.069564
0.085652
0.086836
0.088216
0.016722
0.060752
0.017618
0.016375
0.056116
0.043660
0.109308
0.129269
0.096280
0.023784
0.015334
0.021082
0.066724
0.113432
0.114400
0.070316
0.096940
0.116484
0.108204
0.081260
0.115276
0.095956
0.068524
0.055000
0.092764
0.133570
0.082620
0.082716
0.061600
0.035032
0.063212
0.042084
0.087440
0.102848
0.103576
0.099600
0.113888
0.048548
0.052544
0.109300
0.098252
0.051080
0.086788
0.131883
0.134443
0.110212
0.060428
0.098388
0.050156
0.056460
0.042096
0.052872
0.070604
0.089916
0.077248
0.059336
0.016500
0.087628
0.046216
0.040992
0.095200
0.132247
0.096840
0.133800
0.117336
0.086536
0.059812
0.088000
0.073796
0.042092
0.075588
0.073684
0.084320
0.070196
0.045744
0.042868
0.095440
0.053784
0.032060
0.028873
0.096624
0.107816
0.089952
0.074728
0.087928
0.059336
0.039472
0.089896
0.097660
0.071256
0.107268
0.083536
0.096016
0.066368
0.093640
0.101232
0.073824
0.016723
0.014596
0.018351
0.062056
0.062848
0.069456
0.115256
0.084144
0.053976
0.130687
0.113520
0.089840
0.118620
0.147098
0.106664
0.127884
0.122503
0.092736
0.038612
0.038320
0.045464
0.056140
0.114816
0.136786
0.108444
0.095492
0.067604
0.108872
0.135158
0.126920
0.065228
0.065796
0.097332
0.054580
0.062100
0.098072
0.085484
0.047684
0.063424
0.126176
0.091856
0.141042
0.142557
0.132748
0.051360
0.064744
0.094928
0.132662
0.099756
0.079588
0.052084
0.062616
0.030200
0.075728
0.075708
0.135677
0.181459
0.209762
0.137074
0.123753
0.137899
0.180799
0.285295
0.285146
0.269815
0.291949
0.290040
0.297228
0.294869
0.289224
0.295808
0.297263
0.291574
0.266798
0.230915
0.203591
0.230717
0.167555
0.172373
0.124534
0.076189
0.204218
0.280280
0.214404
0.284041
0.289153
0.293720
0.297999
0.292754
0.290707
0.293885
0.295801
0.295299
0.265775
0.237493
0.245688
0.276809
0.177290
0.152639
0.127493
0.090247
0.203492
0.267435
0.247470
0.290484
0.290136
0.293482
0.298111
0.291499
0.286917
0.292086
0.293344
0.232103
0.240672
0.200302
0.216274
0.269360
0.198586
0.121003
0.070964
0.062604
0.177994
0.227725
0.199719
0.286870
0.285788
0.295539
0.298083
0.290410
0.292133
0.276742
0.160350
0.232026
0.203701
0.219420
0.220960
0.204064
0.246821
0.122587
0.107748
0.072702
0.212358
0.255679
0.265312
0.270904
0.293436
0.293388
0.296432
0.297785
0.283826
0.136370
0.175068
0.199829
0.264541
0.202535
0.205758
0.204812
0.169843
0.152518
0.084593
0.118286
0.128219
0.212974
0.238032
0.284607
0.294732
0.277870
0.292376
0.292776
0.162781
0.150252
0.150395
0.187058
0.270000
0.199301
0.180227
0.204625
0.187212
0.172670
0.134423
0.126470
0.096649
0.141441
0.221488
0.282068
0.291068
0.288456
0.282855
0.209696
0.161241
0.096077
0.176091
0.230651
0.204988
0.207089
0.208783
0.181525
0.136029
0.172318
0.085198
0.168457
0.044073
0.191414
0.229210
0.259865
0.287400
0.283009
0.216263
0.200016
0.234886
0.180876
0.187311
0.256298
0.224271
0.235337
0.237801
0.175651
0.129132
0.130760
0.036471
0.098123
0.114689
0.168886
0.234941
0.263512
0.282930
0.135413
0.198850
0.148272
0.145291
0.159129
0.254262
0.254061
0.248647
0.232246
0.220399
0.154377
0.144290
0.082767
0.020169
0.134808
0.108199
0.174584
0.260094
0.268946
0.216274
0.159041
0.151891
0.087266
0.143630
0.125601
0.224095
0.259395
0.214965
0.236327
0.195704
0.171075
0.152782
0.054607
0.062098
0.142035
0.211500
0.173594
0.270801
0.175299
0.128989
0.159921
0.131541
0.079632
0.131222
0.090357
0.170877
0.231542
0.223831
0.246535
0.187168
0.200841
0.152287
0.104800
0.039769
0.139978
0.224843
0.176157
0.045440
0.141815
0.081150
0.121344
0.108221
0.073560
0.056730
0.110564
0.188642
0.211126
0.186530
0.206693
0.257475
0.244038
0.180216
0.109079
0.109365
0.203778
0.208849
0.039525
0.069622
0.108089
0.048350
0.134885
0.081656
0.141595
0.097672
0.108496
0.139351
0.182812
0.166939
0.184330
0.227505
0.275090
0.187036
0.138537
0.172560
0.218100
0.088047
0.074077
0.084637
0.082558
0.049910
0.113919
0.071767
0.163111
0.134071
0.208915
0.179809
0.206363
0.240012
0.136810
0.201281
0.262147
0.221158
0.166070
0.180282
0.174705
0.108958
0.146897
0.049235
0.075309
0.074385
0.102237
0.118198
0.150890
0.179292
0.194120
0.236723
0.239660
0.254272
0.228506
0.272248
0.236415
0.197893
0.126063
0.181745
0.130375
0.135897
0.155807
0.031668
0.048108
0.022253
0.127889
0.111400
0.129781
0.106648
0.162770
0.242707
0.277293
0.246084
0.264533
0.292195
0.250318
0.173660
0.164673
0.192954
0.147832
0.093448
0.097221
0.065640
0.023640
0.020603
0.048308
0.079379
0.135116
0.044611
0.150813
0.224931
0.238890
0.224744
0.269008
0.271449
0.210015
0.200951
0.199048
0.234248
0.148756
0.116119
0.081744
0.068665
0.015156
0.028202
0.023461
0.059029
0.158260
0.123544
0.195187
0.259856
0.203536
0.218925
0.243763
0.226064
0.177554
0.205549
0.270446
0.231861
0.102292
0.138702
0.088839
0.057830
0.021849
0.033759
0.016209
0.036153
0.197695
0.131310
0.204042
0.187058
0.208838
0.225129
0.243521
0.155158
0.227692
0.257549
0.245754
0.254061
0.150428
0.121366
0.107264
0.052517
0.039728
0.098442
0.025720
0.052418
0.176982
0.134115
0.191436
0.139417
0.241882
0.193218
0.141562
0.187366
0.280422
0.288642
0.219255
0.190303
0.113182
0.138603
0.187597
0.098200
0.030902
0.065475
0.033319
0.041539
0.154553
0.171988
0.193900
0.227197
0.206638
0.070656
0.163562
0.181063
0.290711
0.294304
0.271374
0.177290
0.206869
0.155389
0.207034
0.062835
0.049031
0.125766
0.086353
0.107077
0.102512
0.086342
0.145511
0.257099
0.028012
0.078444
0.213557
0.243697
0.287628
0.293386
0.285897
0.256985
0.228385
0.249252
0.243400
0.134918
0.079896
0.120871
0.103898
0.177829
0.090566
0.031585
0.149218
0.037578
0.030696
0.101731
0.196342
0.244181
0.289690
0.296781
0.289403
0.279261
0.260842
0.263367
0.208574
0.197266
0.085957
0.141650
0.139219
0.175882
0.198245
0.033545
0.014385
0.060591
0.067477
0.112038
0.238824
0.284819
0.290255
0.297109
0.292375
0.295838
0.286960
0.280637
0.197772
0.136920
0.083680
0.154399
0.172219
0.190402
0.124446
0.052935
0.031896
0.090610
0.127031
0.156808
0.236965
0.295051
0.294290
0.292082
0.296943
0.298689
0.294143
0.280228
0.193064
0.147326
0.113468
0.173726
0.249813
0.213700
0.014395
0.037412
0.030514
0.145544
0.155631
0.222203
0.254783
0.296317
0.295341
0.290949
0.296818
0.299206
0.299170
0.273349
0.231388
0.139054
0.108639
0.180579
0.253152
0.077038
0.078574
0.113560
0.156922
0.102088
0.088456
0.037894
0.096478
0.018008
0.082336
0.021379
0.030577
0.012132
0.016397
0.019014
0.027092
0.055282
0.098476
0.104506
0.043318
0.027694
0.124660
0.126292
0.090718
0.092266
0.061708
0.045532
0.027732
0.071446
0.086182
0.035971
0.060724
0.022848
0.025602
0.015884
0.060580
0.084040
0.077476
0.020338
0.046852
0.125980
0.109072
0.172987
0.112852
0.058696
0.072256
0.106120
0.089320
0.066580
0.133876
0.169162
0.057982
0.063994
0.084064
0.090916
0.107938
0.017768
0.053848
0.111136
0.177602
0.171182
0.160354
0.165496
0.131416
0.066988
0.134788
0.051388
0.084052
0.159130
0.147436
0.140482
0.103708
0.135652
0.111592
0.083200
0.026603
0.093436
0.153232
0.192787
0.178062
0.136432
0.111106
0.030098
0.029945
0.138700
0.062872
0.168502
0.173665
0.147088
0.117016
0.171642
0.126016
0.094762
0.104800
0.042376
0.095044
0.172081
0.200799
0.082342
0.085846
0.057790
0.013992
0.068302
0.163648
0.181427
0.142324
0.166804
0.174693
0.166438
0.186035
0.170610
0.157408
0.154048
0.053866
0.165490
0.191924
0.151072
0.073762
0.055564
0.013133
0.023645
0.082192
0.095836
0.121198
0.155584
0.189661
0.194099
0.166408
0.211550
0.184861
0.197721
0.141712
0.107338
0.161548
0.154042
0.127318
0.071260
0.015569
0.030033
0.091624
0.051376
0.086962
0.108964
0.129580
0.184300
0.200100
0.195452
0.202855
0.206768
0.198058
0.140134
0.116326
0.142174
0.093538
0.120004
0.081226
0.017602
0.058186
0.068008
0.064678
0.054460
0.116644
0.108820
0.126790
0.202079
0.203604
0.210599
0.207400
0.207004
0.196712
0.138394
0.066142
0.094240
0.102796
0.061888
0.027886
0.027010
0.015998
0.040870
0.077398
0.033750
0.138238
0.150598
0.211235
0.212172
0.202721
0.201982
0.165532
0.191273
0.173083
0.072760
0.077548
0.095860
0.028844
0.045586
0.019988
0.017006
0.025011
0.068074
0.066268
0.120484
0.174371
0.207776
0.190706
0.207346
0.139810
0.149800
0.149074
0.197581
0.140344
0.070930
0.108700
0.030178
0.039312
0.027058
0.072028
0.025462
0.107098
0.084388
0.125884
0.171549
0.198379
0.141598
0.180826
0.100270
0.126868
0.066802
0.146260
0.148852
0.079918
0.024664
0.093094
0.082684
0.051760
0.087328
0.047392
0.139690
0.184688
0.152092
0.192790
0.172806
0.089254
0.098080
0.106162
0.087580
0.092392
0.116572
0.084754
0.039982
0.101140
0.131638
0.046786
0.012218
0.026730
0.085822
0.182111
0.145360
0.152482
0.130084
0.131242
0.048724
0.014828
0.033247
0.070156
0.159682
0.091570
0.087064
0.067162
0.081394
0.123904
0.072766
0.015426
0.071272
0.168652
0.150772
0.172642
0.157708
0.108064
0.077626
0.016200
0.012822
0.115924
0.128500
0.085600
0.115024
0.100996
0.029445
0.083008
0.125542
0.049402
0.058984
0.109162
0.132790
0.134416
0.172767
0.104800
0.150172
0.103720
0.044020
0.040204
0.138862
0.079060
0.106132
0.116134
0.060592
0.070744
0.084682
0.060544
0.048664
0.105268
0.178890
0.124732
0.160000
0.143662
0.144922
0.151300
0.061732
0.087598
0.134836
0.078790
0.101608
0.081562
0.100048
0.126262
0.051706
0.025705
0.082504
0.072340
0.138868
0.157768
0.178233
0.109972
0.166132
0.115390
0.105388
0.066700
0.060544
0.091360
0.065518
0.066448
0.147796
0.179297
0.122296
0.077824
0.060778
0.082846
0.066646
0.128512
0.190822
0.124600
0.151780
0.143050
0.139090
0.093868
0.090826
0.113968
0.109966
0.110812
0.089224
0.195529
0.184176
0.145012
0.109258
0.060280
0.088636
0.087538
0.158194
0.207739
0.194686
0.157468
0.196006
0.104332
0.134398
0.083932
0.142342
0.129040
0.082366
0.117928
0.184124
0.197045
0.091606
0.029037
0.025105
0.045058
0.112210
0.182111
0.207847
0.196431
0.129970
0.161338
0.052222
0.093856
0.067570
0.116680
0.119740
0.107908
0.189118
0.211285
0.183301
0.067720
0.031563
0.017671
0.067558
0.137194
0.136306
0.201580
0.195605
0.141460
0.148600
0.106828
0.130978
0.147376
0.135814
0.123298
0.150394
0.199508
0.147178
0.153028
0.071824
0.026171
0.056254
0.045130
0.119320
0.135406
0.157312
0.126466
0.164434
0.073300
0.124378
0.131944
0.120736
0.170032
0.159094
0.154684
0.193987
0.178278
0.111880
0.028489
0.075310
0.027044
0.054544
0.071272
0.114736
0.076726
0.155992
0.095602
0.102358
0.134200
0.114076
0.130864
0.150268
0.167752
0.158458
0.168670
0.129250
0.100384
0.052420
0.060748
0.019958
0.041566
0.035837
0.087904
0.122116
0.094312
0.150832
0.111406
0.143482
0.150064
0.178072
0.201415
0.150010
0.096958
0.135670
0.150118
0.184747
0.072478
0.027772
0.016147
0.026013
0.035179
0.102538
0.151348
0.121678
0.151960
0.082444
0.130672
0.103690
0.132382
0.098122
0.129412
0.087376
0.179273
0.126904
0.161638
0.031124
0.015245
0.022828
0.017553
0.084034
0.144694
0.158002
0.085102
0.069862
0.082654
0.087988
0.125560
0.110878
0.078472
0.079732
0.161296
0.098062
0.126976
0.131932
0.015525
0.015016
0.016132
0.018316
0.084112
0.117886
0.105580
0.053134
0.093946
0.074740
0.110782
0.108718
0.022231
0.042616
0.084982
0.116548
0.103264
0.127852
0.156184
0.250514
0.275155
0.292167
0.285061
0.236789
0.130848
0.055520
0.063836
0.085572
0.033351
0.061449
0.019662
0.024716
0.024075
0.036304
0.234303
0.284792
0.276067
0.285172
0.218991
0.253716
0.279890
0.266652
0.258991
0.227087
0.203877
0.074814
0.055124
0.113347
0.012649
0.015103
0.023413
0.013200
0.015134
0.027923
0.180997
0.235040
0.276386
0.191447
0.290679
0.287916
0.286334
0.294179
0.231575
0.235304
0.187663
0.139406
0.042258
0.020788
0.018514
0.010773
0.013306
0.023871
0.030290
0.088355
0.261601
0.245534
0.270040
0.278725
0.295995
0.274809
0.294717
0.291690
0.279930
0.231135
0.229826
0.189610
0.105460
0.092062
0.025942
0.011779
0.015055
0.088872
0.080611
0.082657
0.255747
0.287548
0.272083
0.286256
0.292554
0.290097
0.268024
0.280228
0.238065
0.179677
0.213381
0.165366
0.229485
0.133422
0.028494
0.016829
0.018933
0.102446
0.126998
0.254523
0.294870
0.296509
0.292929
0.293722
0.288831
0.287854
0.295679
0.292815
0.293765
0.245259
0.191931
0.164519
0.158953
0.086892
0.045940
0.037616
0.025612
0.133081
0.139769
0.270270
0.293210
0.284722
0.292617
0.271718
0.273883
0.286974
0.293934
0.291434
0.286667
0.276162
0.138812
0.076310
0.091809
0.112599
0.073769
0.050042
0.067488
0.065915
0.256634
0.283466
0.292991
0.276890
0.269521
0.203118
0.220091
0.273646
0.290915
0.298248
0.292289
0.286716
0.221598
0.088113
0.060404
0.081832
0.110190
0.069820
0.087849
0.261262
0.265541
0.279078
0.284968
0.288875
0.293724
0.269164
0.234666
0.231542
0.229848
0.268616
0.290274
0.283886
0.166994
0.097265
0.043895
0.100411
0.061625
0.130881
0.290012
0.227670
0.170569
0.137206
0.284230
0.297128
0.293003
0.286436
0.247745
0.276905
0.208640
0.267848
0.269542
0.264243
0.179083
0.170470
0.127768
0.126723
0.112973
0.252894
0.232631
0.213832
0.168094
0.144323
0.158337
0.286210
0.290374
0.284097
0.283840
0.292706
0.257801
0.272169
0.248735
0.208519
0.171097
0.094900
0.142244
0.125964
0.244896
0.266268
0.245589
0.192745
0.120750
0.072372
0.172043
0.252613
0.240232
0.270576
0.288965
0.260269
0.219013
0.231938
0.240100
0.243466
0.173814
0.061944
0.148800
0.232323
0.237240
0.203855
0.206902
0.195704
0.108188
0.090016
0.183384
0.231894
0.111081
0.188433
0.285894
0.276711
0.190072
0.269635
0.290565
0.220388
0.174815
0.076937
0.141375
0.216307
0.268108
0.200082
0.196441
0.146325
0.167918
0.114854
0.113336
0.156313
0.134764
0.169040
0.188697
0.215570
0.194560
0.251559
0.283751
0.279752
0.223655
0.169458
0.233159
0.236954
0.252717
0.263100
0.148778
0.212908
0.085462
0.041739
0.060470
0.099883
0.171020
0.211874
0.170580
0.183681
0.152617
0.262741
0.224634
0.238736
0.285590
0.234875
0.215515
0.278706
0.281253
0.242509
0.160812
0.231564
0.163518
0.035647
0.022173
0.086254
0.052924
0.129429
0.197684
0.164057
0.098332
0.235238
0.214976
0.241552
0.292176
0.292450
0.285615
0.297363
0.296361
0.292677
0.236866
0.213700
0.175728
0.090929
0.097716
0.041392
0.027923
0.096693
0.160548
0.083493
0.084142
0.190633
0.269448
0.263084
0.279859
0.297910
0.294847
0.292532
0.296887
0.292617
0.228836
0.205318
0.165586
0.164057
0.096077
0.068049
0.068445
0.030112
0.078950
0.054167
0.071371
0.157677
0.261305
0.277288
0.293982
0.298200
0.287771
0.292307
0.282953
0.281881
0.184627
0.174001
0.168259
0.153838
0.126371
0.047299
0.075947
0.087288
0.104140
0.087431
0.096594
0.060503
0.161340
0.288077
0.290285
0.292931
0.282143
0.271267
0.287260
0.245831
0.207100
0.220256
0.215823
0.222093
0.155059
0.180007
0.179996
0.085264
0.136392
0.064562
0.034255
0.034692
0.045694
0.129484
0.179556
0.199125
0.279881
0.277477
0.277885
0.272175
0.219211
0.178027
0.201083
0.240771
0.223512
0.201677
0.190677
0.131750
0.041074
0.045812
0.073219
0.021697
0.051703
0.075628
0.141023
0.277963
0.222786
0.244500
0.286670
0.272279
0.207760
0.266512
0.234072
0.276516
0.275270
0.229485
0.185265
0.042894
0.017349
0.019986
0.047941
0.047983
0.036676
0.098464
0.114238
0.236921
0.215999
0.207848
0.283925
0.260626
0.279406
0.282554
0.285018
0.295388
0.281624
0.214690
0.193152
0.147799
0.106802
0.052055
0.071756
0.109376
0.068841
0.075078
0.138372
0.128142
0.151000
0.212721
0.243840
0.292260
0.291998
0.279156
0.274038
0.296188
0.293473
0.216956
0.203107
0.174584
0.118440
0.130254
0.090786
0.065112
0.099619
0.045792
0.161769
0.144081
0.194197
0.177576
0.156742
0.239352
0.227670
0.216406
0.257456
0.287958
0.233137
0.235766
0.184990
0.175354
0.121993
0.112423
0.156203
0.142783
0.177125
0.137206
0.193911
0.236943
0.246051
0.241244
0.208816
0.238648
0.230860
0.193878
0.255090
0.131442
0.190776
0.195638
0.222324
0.180172
0.129891
0.079071
0.202128
0.227428
0.222819
0.180282
0.204009
0.257193
0.242993
0.186519
0.268699
0.284935
0.267313
0.241277
0.121080
0.149009
0.182537
0.269468
0.176289
0.200797
0.220157
0.213359
0.240353
0.268402
0.238714
0.265090
0.227791
0.286702
0.290695
0.282982
0.209454
0.291933
0.289720
/


PERMX
605.626681
790.751456
972.236676
944.515306
651.772451
662.430011
22.694154
11.520757
8.613487
23.223731
48.967846
216.651151
996.896336
973.448544
833.988381
73.989655
80.772960
9.140143
2.927150
978.394494
767.921806
762.054444
996.781571
869.258608
711.064505
21.557778
5.189757
8.976334
3.483453
28.344578
546.509858
947.933780
931.483143
807.424643
63.681605
48.959503
24.205107
19.089871
990.070225
995.047929
958.400430
985.090203
986.586117
636.524318
127.540760
4.520547
9.452942
15.414768
7.016265
96.035323
883.086001
985.623387
920.884154
814.933179
180.388148
16.896354
32.518387
961.275780
973.513548
987.897758
758.436106
882.724133
917.332964
285.778795
27.123392
2.745320
8.051708
10.232223
41.050268
497.982407
958.151094
937.931237
977.225970
174.346406
40.084364
35.545285
927.920993
996.609448
996.726488
927.750079
948.549501
950.088366
885.101344
61.769203
12.214846
17.746512
11.429599
31.796916
868.954427
573.548304
781.908618
991.754090
441.246222
34.594655
266.653937
749.942558
998.752777
997.596691
991.879695
975.146800
870.155761
963.267705
479.351400
38.872905
19.904579
25.699638
9.901409
156.036428
228.212275
681.379401
667.216842
775.054068
64.747052
209.194374
107.929459
922.866752
997.932117
982.648058
997.543860
807.794701
961.182821
511.312017
743.227893
48.809684
2.978784
15.942778
32.684662
56.015214
637.485044
828.357865
726.754953
87.183641
207.451223
29.834379
321.663661
985.798153
999.037982
984.589047
994.436371
796.735191
370.133164
529.163646
55.535412
22.228236
4.785067
68.843985
20.568897
596.907451
429.006626
889.979494
832.574298
123.268752
96.886663
243.059164
895.535899
912.096943
986.238609
992.583382
996.522250
732.782350
337.038102
233.854106
98.371886
14.319010
7.689233
87.799694
258.450276
228.793668
861.781169
899.727511
712.920331
6.923457
50.138577
939.377167
550.584524
651.247396
922.012906
980.202938
944.143484
742.350491
591.351905
106.864141
26.967271
27.700270
5.000725
159.349608
473.314708
849.452307
566.755835
585.052716
35.574598
41.656042
610.001636
805.652947
890.959576
886.788393
990.977970
992.391418
787.564261
197.904651
641.929006
108.930877
27.671455
7.460312
65.297116
904.398847
843.375538
953.410652
881.231474
11.824125
22.595710
26.621897
897.232507
298.285402
824.673426
993.399644
940.719183
610.729643
71.357561
245.574914
175.277028
27.675215
14.784785
30.902954
153.832465
414.997996
403.475343
600.024523
3.256207
20.818239
27.365980
770.617736
956.326081
717.518330
729.837207
951.513600
809.940284
611.117893
105.015886
723.719043
64.051750
18.963653
24.324840
238.409743
395.489538
170.897614
667.870099
4.647367
12.176487
18.650866
307.189948
455.564632
807.456249
428.847616
696.660200
973.358890
984.706943
97.899393
213.010985
269.409558
12.228917
30.203898
77.164581
967.544615
283.283970
605.271186
1.328563
4.977715
6.037192
15.474371
340.533624
322.363602
467.015183
970.916765
319.256685
955.802143
253.705569
46.879611
234.769135
27.589892
13.247685
20.438781
276.707544
883.421572
904.940447
5.314018
6.083689
15.920804
3.934776
53.681791
48.777889
334.406723
554.759822
962.376479
939.976508
906.383519
294.753520
738.754263
84.523019
14.883292
17.042410
36.549463
842.599118
809.942149
14.829278
4.417749
7.817070
14.796057
24.953186
144.003816
39.554965
85.813576
666.815982
486.689526
942.423268
910.636388
830.682383
497.659158
114.631770
16.074890
137.234088
132.616328
584.037859
63.640121
7.160148
2.783787
7.524004
1.488134
55.442270
60.346488
104.348449
120.499987
408.512171
313.588408
983.576174
606.236387
452.469177
481.131731
29.558201
28.377491
286.155436
104.842894
59.276971
12.043147
6.544824
4.937146
2.204697
5.863609
4.825163
78.144785
57.524122
22.354862
441.905086
685.046418
949.368898
991.945930
921.265908
136.099334
18.927315
113.696737
166.672903
27.874944
2.084376
11.742998
12.534067
12.674446
4.869036
2.756525
27.049921
32.258413
20.024192
61.907177
640.878939
915.497157
984.242241
845.348916
912.315388
53.487709
113.031112
560.212764
12.150552
4.816150
3.935111
30.519190
18.095351
36.682337
2.185929
11.656173
16.632058
26.737943
33.149120
178.538960
745.794197
840.986453
997.748308
981.935587
469.322094
205.036887
230.092785
12.912817
3.796601
2.194386
9.047842
11.538783
18.882652
6.199819
10.658596
13.241189
25.118864
24.546072
15.464540
914.344801
887.235683
895.560644
925.006959
709.616982
492.071260
302.011166
3.438436
5.078752
1.740171
4.686990
9.188466
36.404997
16.681957
10.025614
1.912908
18.301892
9.906472
11.369517
185.230287
959.369705
986.211358
876.518325
677.061314
853.835092
524.091360
8.492137
4.747041
5.231509
4.234723
20.198401
83.139422
298.370581
19.180283
19.912968
10.762248
37.153523
12.115407
20.632269
952.837849
983.318025
311.909785
906.811460
292.573509
179.846504
39.755663
3.527232
1.575339
0.776408
21.590366
35.666377
92.893430
55.949731
12.591196
5.581308
16.377100
32.593575
125.086085
863.282625
927.073143
972.767382
91.401432
513.795150
157.190393
54.467695
6.717876
9.164062
3.468830
4.050839
42.110558
578.864611
549.586429
52.756624
18.465369
25.440228
9.284125
116.179633
937.551213
980.900600
822.788096
543.942509
840.428942
693.823491
134.006850
68.588610
26.779780
11.643244
2.960943
11.126742
11.824370
770.466925
211.666925
34.590274
4.463782
16.362588
67.544812
442.976819
970.901115
973.771366
376.198448
910.657356
948.877175
609.594444
734.911427
73.895501
21.287860
17.792952
0.937294